Circuit: * C:\Users\ahmetcan.akuz\Documents\GitHub\EE463_2022_Hardware_Project\Components\LM555\LM555_Astable_Mode.asc

Direct Newton iteration for .op point succeeded.

Date: Wed Dec 07 21:01:52 2022
Total elapsed time: 0.131 seconds.

tnom = 27
temp = 27
method = modified trap
totiter = 51376
traniter = 51361
tranpoints = 11928
accept = 9249
rejected = 2679
matrix size = 18
fillins = 6
solver = Normal
Matrix Compiler1: 868 bytes object code size  0.1/0.1/[0.1]
Matrix Compiler2: off  [0.1]/0.1/0.1

