Circuit: * C:\Users\ahmetcan.akuz\Documents\GitHub\EE463_2022_Hardware_Project\Components\LM555\LM555_Astable_Mode.asc

Direct Newton iteration for .op point succeeded.

Date: Tue Dec 06 20:32:21 2022
Total elapsed time: 0.203 seconds.

tnom = 27
temp = 27
method = modified trap
totiter = 93905
traniter = 93897
tranpoints = 20448
accept = 15955
rejected = 4493
matrix size = 14
fillins = 0
solver = Normal
Matrix Compiler1: 384 bytes object code size  0.1/0.1/[0.0]
Matrix Compiler2: off  [0.1]/0.1/0.1

