Circuit: * C:\Users\ahmetcan.akuz\Documents\GitHub\EE463_2022_Hardware_Project\Simulations\Gate_Driver\Gate_Driver.asc

Limiting rise time of source v1 to 4e-005
Limiting fall time of source v1 to 4e-005
Direct Newton iteration for .op point succeeded.
