Circuit: * C:\Users\ahmetcan.akuz\Documents\GitHub\EE463_2022_Hardware_Project\Simulations\Gate_Driver\Gate_Driver.asc

Limiting rise time of source v1 to 5e-005
Limiting fall time of source v1 to 5e-005
WARNING: Less than two connections to node NC_02.  This node is used by R3.
Direct Newton iteration for .op point succeeded.

Date: Mon Jan 02 21:02:39 2023
Total elapsed time: 0.275 seconds.

tnom = 27
temp = 27
method = modified trap
totiter = 116461
traniter = 116431
tranpoints = 34923
accept = 25689
rejected = 9234
matrix size = 16
fillins = 0
solver = Normal
Matrix Compiler1: 788 bytes object code size  0.1/0.1/[0.1]
Matrix Compiler2: off  [0.1]/0.1/0.2

